/*--------------------------------*- C++ -*----------------------------------*\
| =========                 |                                                 |
| \\      /  F ield         | OpenFOAM: The Open Source CFD Toolbox           |
|  \\    /   O peration     | Version:  1812                                  |
|   \\  /    A nd           | Web:      www.OpenFOAM.com                      |
|    \\/     M anipulation  |                                                 |
\*---------------------------------------------------------------------------*/
FoamFile
{
    version     1812;
    format      ascii;
    class       dictionary;
    location    "system";
    object      controlDict;
}
// * * * * * * * * * * * * * * * * * * * * * * * * * * * * * * * * * * * * * //
#include "../configDict"

application     myrhoCentralFoam;//rhoPimpleFoam;

startFrom       latestTime;//latestTime;

startTime       0;

stopAt          endTime;

endTime         2;

deltaT          $dt; 

writeControl    adjustableRunTime;

writeInterval   0.01;

purgeWrite      0;//200;

writeFormat     binary;

writePrecision  10;

writeCompression off;//on;

timeFormat      general;

timePrecision   6;

runTimeModifiable true;

adjustTimeStep  false;

maxCo           0.3;

maxDeltaT       1e-5;

functions
{
 #include "average"

//  //libs for turbulent simulations
//  #include "FOMachNo" 
//  #includeFunc solverInfo
}

// ************************************************************************* //
